1657491808.272585s 1 https://api.dandiarchive.org/api/zarr/27d4ce18-0435-41b8-9d09-59533fbd68a8.zarr/0/0/0/13/2/219
1657491808.264195s 1 https://dandiarchive.s3.amazonaws.com/zarr/27d4ce18-0435-41b8-9d09-59533fbd68a8/0/0/0/13/2/219?versionId=MT3DISS4w2vg5xAzbrr791J1fHeyb1nZ
